** MATERIALS
** 
*Material, name=YG-Steel
*Elastic
210000., 0.3
*Plastic
 275.4,      0.
 275.4, 0.00019
 275.6, 0.00069
 275.7, 0.00119
 275.8, 0.00169
  276., 0.00219
 276.1, 0.00268
 276.2, 0.00318
 276.4, 0.00368
 276.5, 0.00418
 276.7, 0.00467
 276.8, 0.00517
 276.9, 0.00567
 277.1, 0.00616
 277.2, 0.00666
 277.3, 0.00716
 277.5, 0.00765
 277.6, 0.00815
 277.8, 0.00864
 277.9, 0.00914
** ... 374 like lines cut
** 